*SPEF "IEEE 1481-1998"
*DESIGN "IIR_FILTER"
*DATE "Sat Nov 13 16:14:16 2021"
*VENDOR "Cadence Design Systems, Inc."
*PROGRAM "Innovus"
*VERSION "17.11-s080_1"
*DESIGN_FLOW "COUPLING C" "PIN_CAP NONE" "NAME_SCOPE LOCAL"
*DIVIDER /
*DELIMITER :
*BUS_DELIMITER []
*T_UNIT 1 NS
*C_UNIT 1 PF
*R_UNIT 1 OHM
*L_UNIT 1 HENRY

// MMMC spef file for corner 'my_rc'

*NAME_MAP

*1 FE_PHN2_n53
*2 FE_PHN1_n60
*3 FE_PHN0_n53
*4 FE_OFN0_w_past_0
*5 DIN[13]
*6 DIN[12]
*7 DIN[11]
*8 DIN[10]
*9 DIN[9]
*10 DIN[8]
*11 DIN[7]
*12 DIN[6]
*13 DIN[5]
*14 DIN[4]
*15 DIN[3]
*16 DIN[2]
*17 DIN[1]
*18 DIN[0]
*19 a0[13]
*20 a0[12]
*21 a0[11]
*22 a0[10]
*23 a0[9]
*24 a0[8]
*25 a0[7]
*26 a0[6]
*27 a0[5]
*28 a0[4]
*29 a0[3]
*30 a0[2]
*31 a0[1]
*32 a0[0]
*33 a1[13]
*34 a1[12]
*35 a1[11]
*36 a1[10]
*37 a1[9]
*38 a1[8]
*39 a1[7]
*40 a1[6]
*41 a1[5]
*42 a1[4]
*43 a1[3]
*44 a1[2]
*45 a1[1]
*46 a1[0]
*47 b0[13]
*48 b0[12]
*49 b0[11]
*50 b0[10]
*51 b0[9]
*52 b0[8]
*53 b0[7]
*54 b0[6]
*55 b0[5]
*56 b0[4]
*57 b0[3]
*58 b0[2]
*59 b0[1]
*60 b0[0]
*61 b1[13]
*62 b1[12]
*63 b1[11]
*64 b1[10]
*65 b1[9]
*66 b1[8]
*67 b1[7]
*68 b1[6]
*69 b1[5]
*70 b1[4]
*71 b1[3]
*72 b1[2]
*73 b1[1]
*74 b1[0]
*75 DOUT[13]
*76 DOUT[12]
*77 DOUT[11]
*78 DOUT[10]
*79 DOUT[9]
*80 DOUT[8]
*81 DOUT[7]
*82 VIN
*83 RST_n
*84 CLK
*85 VOUT
*86 N4
*87 N5
*88 N6
*89 N7
*90 N8
*91 N9
*92 N10
*93 N11
*94 N12
*95 N13
*96 N14
*97 N15
*98 N16
*99 N17
*100 N18
*101 N19
*102 N20
*103 N21
*104 N22
*105 N23
*106 N24
*107 N25
*108 N26
*109 N27
*110 N28
*111 N29
*112 N30
*113 N31
*114 N32
*115 N33
*116 N34
*117 N35
*118 N36
*119 N37
*120 N38
*121 N39
*122 N40
*123 N41
*124 N42
*125 N43
*126 N44
*127 N45
*128 n29
*129 n30
*130 n32
*131 n33
*132 n34
*133 n35
*134 n36
*135 n37
*136 n38
*137 n39
*138 n40
*139 n41
*140 n42
*141 n43
*142 n44
*143 n45
*144 n46
*145 n47
*146 n48
*147 n49
*148 n50
*149 n51
*150 n52
*151 n53
*152 n54
*153 n55
*154 n60
*155 n61
*156 n62
*157 n63
*158 n64
*159 n65
*160 n66
*161 n67
*162 n68
*163 n69
*164 n70
*165 n71
*166 n72
*167 n73
*168 n74
*169 n75
*170 n76
*171 n77
*172 n78
*173 n79
*174 n80
*175 n81
*176 n82
*177 w_past[14]
*178 w_past[13]
*179 w_past[12]
*180 w_past[11]
*181 w_past[10]
*182 w_past[9]
*183 w_past[8]
*184 w_past[7]
*185 w_past[6]
*186 w_past[5]
*187 w_past[4]
*188 w_past[3]
*189 w_past[2]
*190 w_past[1]
*191 w_past[0]
*192 fb[5]
*193 fb[4]
*194 fb[3]
*195 fb[2]
*196 fb[1]
*197 fb[0]
*198 w[14]
*199 w[13]
*200 w[12]
*201 w[11]
*202 w[10]
*203 w[9]
*204 w[8]
*205 w[7]
*206 w[6]
*207 w[5]
*208 w[4]
*209 w[3]
*210 w[2]
*211 w[1]
*212 w[0]
*213 ff_tmp_0[26]
*214 ff_tmp_0[25]
*215 ff_tmp_0[24]
*216 ff_tmp_0[23]
*217 ff_tmp_0[22]
*218 ff_tmp_0[21]
*219 ff_tmp_0[20]
*220 ff_tmp_1[26]
*221 ff_tmp_1[25]
*222 ff_tmp_1[24]
*223 ff_tmp_1[23]
*224 ff_tmp_1[22]
*225 ff_tmp_1[21]
*226 ff_tmp_1[20]
*227 add_37\/carry[14]
*228 add_37\/carry[13]
*229 add_37\/carry[12]
*230 add_37\/carry[11]
*231 add_37\/carry[10]
*232 add_37\/carry[9]
*233 add_37\/carry[8]
*234 add_37\/carry[7]
*235 add_37\/carry[6]
*236 add_37\/carry[5]
*237 add_37\/carry[4]
*238 add_37\/carry[3]
*239 add_37\/carry[2]
*240 add_37\/carry[1]
*241 add_40/n1
*242 add_40/carry[6]
*243 add_40/carry[5]
*244 add_40/carry[4]
*245 add_40/carry[3]
*246 add_40/carry[2]
*247 mult_38/n32
*248 mult_38/n33
*249 mult_38/n34
*250 mult_38/n35
*251 mult_38/n36
*252 mult_38/n37
*253 mult_38/n38
*254 mult_38/n58
*255 mult_38/n59
*256 mult_38/n60
*257 mult_38/n61
*258 mult_38/n62
*259 mult_38/n64
*260 mult_38/n65
*261 mult_38/n66
*262 mult_38/n67
*263 mult_38/n68
*264 mult_38/n69
*265 mult_38/n70
*266 mult_38/n71
*267 mult_38/n72
*268 mult_38/n74
*269 mult_38/n75
*270 mult_38/n76
*271 mult_38/n77
*272 mult_38/n78
*273 mult_38/n79
*274 mult_38/n80
*275 mult_38/n81
*276 mult_38/n82
*277 mult_38/n83
*278 mult_38/n84
*279 mult_38/n85
*280 mult_38/n86
*281 mult_38/n88
*282 mult_38/n89
*283 mult_38/n90
*284 mult_38/n91
*285 mult_38/n92
*286 mult_38/n93
*287 mult_38/n94
*288 mult_38/n95
*289 mult_38/n96
*290 mult_38/n97
*291 mult_38/n98
*292 mult_38/n99
*293 mult_38/n100
*294 mult_38/n101
*295 mult_38/n102
*296 mult_38/n103
*297 mult_38/n104
*298 mult_38/n106
*299 mult_38/n107
*300 mult_38/n108
*301 mult_38/n109
*302 mult_38/n110
*303 mult_38/n111
*304 mult_38/n112
*305 mult_38/n113
*306 mult_38/n114
*307 mult_38/n115
*308 mult_38/n116
*309 mult_38/n117
*310 mult_38/n118
*311 mult_38/n119
*312 mult_38/n120
*313 mult_38/n121
*314 mult_38/n122
*315 mult_38/n123
*316 mult_38/n124
*317 mult_38/n125
*318 mult_38/n126
*319 mult_38/n128
*320 mult_38/n129
*321 mult_38/n130
*322 mult_38/n131
*323 mult_38/n132
*324 mult_38/n133
*325 mult_38/n134
*326 mult_38/n135
*327 mult_38/n136
*328 mult_38/n137
*329 mult_38/n138
*330 mult_38/n139
*331 mult_38/n140
*332 mult_38/n141
*333 mult_38/n142
*334 mult_38/n143
*335 mult_38/n144
*336 mult_38/n145
*337 mult_38/n146
*338 mult_38/n147
*339 mult_38/n148
*340 mult_38/n149
*341 mult_38/n150
*342 mult_38/n151
*343 mult_38/n152
*344 mult_38/n153
*345 mult_38/n154
*346 mult_38/n155
*347 mult_38/n156
*348 mult_38/n157
*349 mult_38/n158
*350 mult_38/n159
*351 mult_38/n160
*352 mult_38/n161
*353 mult_38/n162
*354 mult_38/n163
*355 mult_38/n164
*356 mult_38/n165
*357 mult_38/n166
*358 mult_38/n167
*359 mult_38/n168
*360 mult_38/n169
*361 mult_38/n170
*362 mult_38/n171
*363 mult_38/n172
*364 mult_38/n173
*365 mult_38/n174
*366 mult_38/n175
*367 mult_38/n176
*368 mult_38/n177
*369 mult_38/n178
*370 mult_38/n179
*371 mult_38/n180
*372 mult_38/n181
*373 mult_38/n182
*374 mult_38/n183
*375 mult_38/n184
*376 mult_38/n185
*377 mult_38/n186
*378 mult_38/n187
*379 mult_38/n188
*380 mult_38/n189
*381 mult_38/n190
*382 mult_38/n191
*383 mult_38/n192
*384 mult_38/n193
*385 mult_38/n194
*386 mult_38/n195
*387 mult_38/n196
*388 mult_38/n197
*389 mult_38/n198
*390 mult_38/n199
*391 mult_38/n200
*392 mult_38/n201
*393 mult_38/n202
*394 mult_38/n203
*395 mult_38/n204
*396 mult_38/n205
*397 mult_38/n206
*398 mult_38/n207
*399 mult_38/n208
*400 mult_38/n209
*401 mult_38/n210
*402 mult_38/n211
*403 mult_38/n212
*404 mult_38/n213
*405 mult_38/n214
*406 mult_38/n215
*407 mult_38/n216
*408 mult_38/n217
*409 mult_38/n218
*410 mult_38/n219
*411 mult_38/n220
*412 mult_38/n221
*413 mult_38/n222
*414 mult_38/n223
*415 mult_38/n243
*416 mult_38/n244
*417 mult_38/n245
*418 mult_38/n246
*419 mult_38/n247
*420 mult_38/n251
*421 mult_38/n252
*422 mult_38/n253
*423 mult_38/n254
*424 mult_38/n255
*425 mult_38/n256
*426 mult_38/n257
*427 mult_38/n258
*428 mult_38/n259
*429 mult_38/n260
*430 mult_38/n261
*431 mult_38/n262
*432 mult_38/n263
*433 mult_38/n264
*434 mult_38/n266
*435 mult_38/n267
*436 mult_38/n268
*437 mult_38/n269
*438 mult_38/n270
*439 mult_38/n271
*440 mult_38/n272
*441 mult_38/n273
*442 mult_38/n275
*443 mult_38/n276
*444 mult_38/n277
*445 mult_38/n278
*446 mult_38/n279
*447 mult_38/n281
*448 mult_38/n282
*449 mult_38/n283
*450 mult_38/n284
*451 mult_38/n285
*452 mult_38/n286
*453 mult_38/n287
*454 mult_38/n288
*455 mult_38/n289
*456 mult_38/n290
*457 mult_38/n291
*458 mult_38/n292
*459 mult_38/n293
*460 mult_38/n294
*461 mult_38/n296
*462 mult_38/n297
*463 mult_38/n298
*464 mult_38/n299
*465 mult_38/n300
*466 mult_38/n301
*467 mult_38/n302
*468 mult_38/n303
*469 mult_38/n304
*470 mult_38/n305
*471 mult_38/n306
*472 mult_38/n307
*473 mult_38/n308
*474 mult_38/n309
*475 mult_38/n311
*476 mult_38/n312
*477 mult_38/n314
*478 mult_38/n315
*479 mult_38/n316
*480 mult_38/n317
*481 mult_38/n318
*482 mult_38/n319
*483 mult_38/n320
*484 mult_38/n321
*485 mult_38/n322
*486 mult_38/n323
*487 mult_38/n324
*488 mult_38/n325
*489 mult_38/n326
*490 mult_38/n327
*491 mult_38/n328
*492 mult_38/n329
*493 mult_38/n330
*494 mult_38/n331
*495 mult_38/n332
*496 mult_38/n333
*497 mult_38/n334
*498 mult_38/n335
*499 mult_38/n336
*500 mult_38/n337
*501 mult_38/n338
*502 mult_38/n341
*503 mult_38/n342
*504 mult_38/n343
*505 mult_38/n344
*506 mult_38/n345
*507 mult_38/n346
*508 mult_38/n347
*509 mult_38/n348
*510 mult_38/n349
*511 mult_38/n350
*512 mult_38/n351
*513 mult_38/n352
*514 mult_38/n556
*515 mult_38/n557
*516 mult_38/n558
*517 mult_38/n559
*518 mult_38/n560
*519 mult_38/n561
*520 mult_38/n562
*521 mult_38/n563
*522 mult_38/n564
*523 mult_38/n565
*524 mult_38/n566
*525 mult_38/n567
*526 mult_38/n568
*527 mult_38/n569
*528 mult_38/n570
*529 mult_38/n571
*530 mult_38/n572
*531 mult_38/n573
*532 mult_38/n574
*533 mult_38/n575
*534 mult_38/n576
*535 mult_38/n577
*536 mult_38/n578
*537 mult_38/n579
*538 mult_38/n580
*539 mult_38/n581
*540 mult_38/n582
*541 mult_38/n583
*542 mult_38/n584
*543 mult_38/n585
*544 mult_38/n586
*545 mult_38/n587
*546 mult_38/n588
*547 mult_38/n589
*548 mult_38/n590
*549 mult_38/n591
*550 mult_38/n592
*551 mult_38/n593
*552 mult_38/n594
*553 mult_38/n595
*554 mult_38/n596
*555 mult_38/n597
*556 mult_38/n598
*557 mult_38/n599
*558 mult_38/n600
*559 mult_38/n601
*560 mult_38/n602
*561 mult_38/n603
*562 mult_38/n604
*563 mult_38/n605
*564 mult_38/n606
*565 mult_38/n607
*566 mult_38/n608
*567 mult_38/n609
*568 mult_38/n610
*569 mult_38/n611
*570 mult_38/n612
*571 mult_38/n613
*572 mult_38/n614
*573 mult_38/n615
*574 mult_38/n616
*575 mult_38/n617
*576 mult_38/n618
*577 mult_38/n619
*578 mult_38/n620
*579 mult_38/n621
*580 mult_38/n622
*581 mult_38/n623
*582 mult_38/n624
*583 mult_38/n625
*584 mult_38/n626
*585 mult_38/n627
*586 mult_38/n628
*587 mult_38/n629
*588 mult_38/n630
*589 mult_38/n631
*590 mult_38/n632
*591 mult_38/n633
*592 mult_38/n634
*593 mult_38/n635
*594 mult_38/n636
*595 mult_38/n637
*596 mult_38/n638
*597 mult_38/n639
*598 mult_38/n640
*599 mult_38/n641
*600 mult_38/n642
*601 mult_38/n643
*602 mult_38/n644
*603 mult_38/n645
*604 mult_38/n646
*605 mult_38/n647
*606 mult_38/n648
*607 mult_38/n649
*608 mult_38/n650
*609 mult_38/n651
*610 mult_38/n652
*611 mult_38/n653
*612 mult_38/n654
*613 mult_38/n655
*614 mult_38/n656
*615 mult_38/n657
*616 mult_38/n658
*617 mult_38/n659
*618 mult_38/n660
*619 mult_38/n661
*620 mult_38/n662
*621 mult_38/n663
*622 mult_38/n664
*623 mult_38/n665
*624 mult_38/n666
*625 mult_38/n667
*626 mult_38/n668
*627 mult_38/n669
*628 mult_38/n670
*629 mult_38/n671
*630 mult_38/n672
*631 mult_38/n673
*632 mult_38/n674
*633 mult_38/n675
*634 mult_38/n676
*635 mult_38/n677
*636 mult_38/n678
*637 mult_38/n679
*638 mult_38/n680
*639 mult_38/n681
*640 mult_38/n682
*641 mult_38/n683
*642 mult_38/n684
*643 mult_38/n685
*644 mult_38/n686
*645 mult_38/n687
*646 mult_38/n688
*647 mult_38/n689
*648 mult_38/n690
*649 mult_38/n691
*650 mult_38/n692
*651 mult_38/n693
*652 mult_38/n694
*653 mult_38/n695
*654 mult_38/n696
*655 mult_38/n697
*656 mult_38/n698
*657 mult_38/n699
*658 mult_38/n700
*659 mult_38/n701
*660 mult_38/n702
*661 mult_38/n703
*662 mult_38/n704
*663 mult_38/n705
*664 mult_38/n706
*665 mult_38/n707
*666 mult_38/n708
*667 mult_38/n709
*668 mult_38/n710
*669 mult_38/n711
*670 mult_38/n712
*671 mult_38/n713
*672 mult_38/n714
*673 mult_38/n715
*674 mult_38/n716
*675 mult_38/n717
*676 mult_38/n718
*677 mult_38/n719
*678 mult_38/n720
*679 mult_38/n721
*680 mult_38/n722
*681 mult_38/n723
*682 mult_38/n724
*683 mult_38/n725
*684 mult_38/n726
*685 mult_38/n727
*686 mult_38/n728
*687 mult_38/n729
*688 mult_38/n730
*689 mult_38/n731
*690 mult_38/n732
*691 mult_38/n733
*692 mult_38/n734
*693 mult_38/n735
*694 mult_38/n736
*695 mult_38/n737
*696 mult_38/n738
*697 mult_38/n739
*698 mult_38/n740
*699 mult_38/n741
*700 mult_38/n742
*701 mult_38/n743
*702 mult_38/n744
*703 mult_38/n745
*704 mult_38/n746
*705 mult_38/n747
*706 mult_38/n748
*707 mult_38/n749
*708 mult_38/n750
*709 mult_38/n751
*710 mult_38/n752
*711 mult_38/n753
*712 mult_38/n754
*713 mult_35/n32
*714 mult_35/n33
*715 mult_35/n34
*716 mult_35/n35
*717 mult_35/n36
*718 mult_35/n37
*719 mult_35/n58
*720 mult_35/n59
*721 mult_35/n61
*722 mult_35/n62
*723 mult_35/n63
*724 mult_35/n64
*725 mult_35/n65
*726 mult_35/n66
*727 mult_35/n67
*728 mult_35/n68
*729 mult_35/n69
*730 mult_35/n70
*731 mult_35/n72
*732 mult_35/n73
*733 mult_35/n74
*734 mult_35/n75
*735 mult_35/n76
*736 mult_35/n77
*737 mult_35/n78
*738 mult_35/n79
*739 mult_35/n80
*740 mult_35/n81
*741 mult_35/n82
*742 mult_35/n83
*743 mult_35/n84
*744 mult_35/n86
*745 mult_35/n87
*746 mult_35/n88
*747 mult_35/n89
*748 mult_35/n90
*749 mult_35/n91
*750 mult_35/n92
*751 mult_35/n93
*752 mult_35/n94
*753 mult_35/n95
*754 mult_35/n96
*755 mult_35/n97
*756 mult_35/n98
*757 mult_35/n99
*758 mult_35/n100
*759 mult_35/n101
*760 mult_35/n102
*761 mult_35/n104
*762 mult_35/n105
*763 mult_35/n106
*764 mult_35/n107
*765 mult_35/n108
*766 mult_35/n109
*767 mult_35/n110
*768 mult_35/n111
*769 mult_35/n112
*770 mult_35/n113
*771 mult_35/n114
*772 mult_35/n115
*773 mult_35/n116
*774 mult_35/n117
*775 mult_35/n118
*776 mult_35/n119
*777 mult_35/n120
*778 mult_35/n121
*779 mult_35/n122
*780 mult_35/n123
*781 mult_35/n124
*782 mult_35/n126
*783 mult_35/n127
*784 mult_35/n128
*785 mult_35/n129
*786 mult_35/n130
*787 mult_35/n131
*788 mult_35/n132
*789 mult_35/n133
*790 mult_35/n134
*791 mult_35/n135
*792 mult_35/n136
*793 mult_35/n137
*794 mult_35/n138
*795 mult_35/n139
*796 mult_35/n140
*797 mult_35/n141
*798 mult_35/n142
*799 mult_35/n143
*800 mult_35/n144
*801 mult_35/n145
*802 mult_35/n146
*803 mult_35/n147
*804 mult_35/n148
*805 mult_35/n149
*806 mult_35/n150
*807 mult_35/n151
*808 mult_35/n152
*809 mult_35/n153
*810 mult_35/n154
*811 mult_35/n155
*812 mult_35/n156
*813 mult_35/n157
*814 mult_35/n158
*815 mult_35/n159
*816 mult_35/n160
*817 mult_35/n161
*818 mult_35/n162
*819 mult_35/n163
*820 mult_35/n164
*821 mult_35/n165
*822 mult_35/n166
*823 mult_35/n167
*824 mult_35/n168
*825 mult_35/n169
*826 mult_35/n170
*827 mult_35/n171
*828 mult_35/n172
*829 mult_35/n173
*830 mult_35/n174
*831 mult_35/n175
*832 mult_35/n176
*833 mult_35/n177
*834 mult_35/n178
*835 mult_35/n179
*836 mult_35/n180
*837 mult_35/n181
*838 mult_35/n182
*839 mult_35/n183
*840 mult_35/n184
*841 mult_35/n185
*842 mult_35/n186
*843 mult_35/n187
*844 mult_35/n188
*845 mult_35/n189
*846 mult_35/n190
*847 mult_35/n191
*848 mult_35/n192
*849 mult_35/n193
*850 mult_35/n194
*851 mult_35/n195
*852 mult_35/n196
*853 mult_35/n197
*854 mult_35/n198
*855 mult_35/n199
*856 mult_35/n200
*857 mult_35/n201
*858 mult_35/n202
*859 mult_35/n203
*860 mult_35/n204
*861 mult_35/n205
*862 mult_35/n206
*863 mult_35/n207
*864 mult_35/n208
*865 mult_35/n209
*866 mult_35/n210
*867 mult_35/n211
*868 mult_35/n212
*869 mult_35/n213
*870 mult_35/n214
*871 mult_35/n215
*872 mult_35/n216
*873 mult_35/n217
*874 mult_35/n218
*875 mult_35/n219
*876 mult_35/n220
*877 mult_35/n221
*878 mult_35/n241
*879 mult_35/n242
*880 mult_35/n243
*881 mult_35/n244
*882 mult_35/n245
*883 mult_35/n249
*884 mult_35/n250
*885 mult_35/n251
*886 mult_35/n252
*887 mult_35/n253
*888 mult_35/n254
*889 mult_35/n255
*890 mult_35/n256
*891 mult_35/n257
*892 mult_35/n258
*893 mult_35/n259
*894 mult_35/n260
*895 mult_35/n261
*896 mult_35/n263
*897 mult_35/n264
*898 mult_35/n265
*899 mult_35/n266
*900 mult_35/n267
*901 mult_35/n268
*902 mult_35/n269
*903 mult_35/n270
*904 mult_35/n272
*905 mult_35/n273
*906 mult_35/n274
*907 mult_35/n275
*908 mult_35/n276
*909 mult_35/n278
*910 mult_35/n279
*911 mult_35/n280
*912 mult_35/n281
*913 mult_35/n282
*914 mult_35/n283
*915 mult_35/n284
*916 mult_35/n285
*917 mult_35/n286
*918 mult_35/n287
*919 mult_35/n288
*920 mult_35/n289
*921 mult_35/n290
*922 mult_35/n291
*923 mult_35/n293
*924 mult_35/n294
*925 mult_35/n295
*926 mult_35/n296
*927 mult_35/n297
*928 mult_35/n298
*929 mult_35/n299
*930 mult_35/n300
*931 mult_35/n301
*932 mult_35/n302
*933 mult_35/n303
*934 mult_35/n304
*935 mult_35/n305
*936 mult_35/n306
*937 mult_35/n308
*938 mult_35/n309
*939 mult_35/n311
*940 mult_35/n312
*941 mult_35/n313
*942 mult_35/n314
*943 mult_35/n315
*944 mult_35/n316
*945 mult_35/n317
*946 mult_35/n318
*947 mult_35/n319
*948 mult_35/n320
*949 mult_35/n321
*950 mult_35/n322
*951 mult_35/n323
*952 mult_35/n324
*953 mult_35/n325
*954 mult_35/n326
*955 mult_35/n327
*956 mult_35/n328
*957 mult_35/n329
*958 mult_35/n330
*959 mult_35/n331
*960 mult_35/n332
*961 mult_35/n333
*962 mult_35/n334
*963 mult_35/n335
*964 mult_35/n338
*965 mult_35/n339
*966 mult_35/n340
*967 mult_35/n341
*968 mult_35/n342
*969 mult_35/n343
*970 mult_35/n344
*971 mult_35/n345
*972 mult_35/n346
*973 mult_35/n347
*974 mult_35/n348
*975 mult_35/n349
*976 mult_35/n551
*977 mult_35/n552
*978 mult_35/n553
*979 mult_35/n554
*980 mult_35/n555
*981 mult_35/n556
*982 mult_35/n557
*983 mult_35/n558
*984 mult_35/n559
*985 mult_35/n560
*986 mult_35/n561
*987 mult_35/n562
*988 mult_35/n563
*989 mult_35/n564
*990 mult_35/n565
*991 mult_35/n566
*992 mult_35/n567
*993 mult_35/n568
*994 mult_35/n569
*995 mult_35/n570
*996 mult_35/n571
*997 mult_35/n572
*998 mult_35/n573
*999 mult_35/n574
*1000 mult_35/n575
*1001 mult_35/n576
*1002 mult_35/n577
*1003 mult_35/n578
*1004 mult_35/n579
*1005 mult_35/n580
*1006 mult_35/n581
*1007 mult_35/n582
*1008 mult_35/n583
*1009 mult_35/n584
*1010 mult_35/n585
*1011 mult_35/n586
*1012 mult_35/n587
*1013 mult_35/n588
*1014 mult_35/n589
*1015 mult_35/n590
*1016 mult_35/n591
*1017 mult_35/n592
*1018 mult_35/n593
*1019 mult_35/n594
*1020 mult_35/n595
*1021 mult_35/n596
*1022 mult_35/n597
*1023 mult_35/n598
*1024 mult_35/n599
*1025 mult_35/n600
*1026 mult_35/n601
*1027 mult_35/n602
*1028 mult_35/n603
*1029 mult_35/n604
*1030 mult_35/n605
*1031 mult_35/n606
*1032 mult_35/n607
*1033 mult_35/n608
*1034 mult_35/n609
*1035 mult_35/n610
*1036 mult_35/n611
*1037 mult_35/n612
*1038 mult_35/n613
*1039 mult_35/n614
*1040 mult_35/n615
*1041 mult_35/n616
*1042 mult_35/n617
*1043 mult_35/n618
*1044 mult_35/n619
*1045 mult_35/n620
*1046 mult_35/n621
*1047 mult_35/n622
*1048 mult_35/n623
*1049 mult_35/n624
*1050 mult_35/n625
*1051 mult_35/n626
*1052 mult_35/n627
*1053 mult_35/n628
*1054 mult_35/n629
*1055 mult_35/n630
*1056 mult_35/n631
*1057 mult_35/n632
*1058 mult_35/n633
*1059 mult_35/n634
*1060 mult_35/n635
*1061 mult_35/n636
*1062 mult_35/n637
*1063 mult_35/n638
*1064 mult_35/n639
*1065 mult_35/n640
*1066 mult_35/n641
*1067 mult_35/n642
*1068 mult_35/n643
*1069 mult_35/n644
*1070 mult_35/n645
*1071 mult_35/n646
*1072 mult_35/n647
*1073 mult_35/n648
*1074 mult_35/n649
*1075 mult_35/n650
*1076 mult_35/n651
*1077 mult_35/n652
*1078 mult_35/n653
*1079 mult_35/n654
*1080 mult_35/n655
*1081 mult_35/n656
*1082 mult_35/n657
*1083 mult_35/n658
*1084 mult_35/n659
*1085 mult_35/n660
*1086 mult_35/n661
*1087 mult_35/n662
*1088 mult_35/n663
*1089 mult_35/n664
*1090 mult_35/n665
*1091 mult_35/n666
*1092 mult_35/n667
*1093 mult_35/n668
*1094 mult_35/n669
*1095 mult_35/n670
*1096 mult_35/n671
*1097 mult_35/n672
*1098 mult_35/n673
*1099 mult_35/n674
*1100 mult_35/n675
*1101 mult_35/n676
*1102 mult_35/n677
*1103 mult_35/n678
*1104 mult_35/n679
*1105 mult_35/n680
*1106 mult_35/n681
*1107 mult_35/n682
*1108 mult_35/n683
*1109 mult_35/n684
*1110 mult_35/n685
*1111 mult_35/n686
*1112 mult_35/n687
*1113 mult_35/n688
*1114 mult_35/n689
*1115 mult_35/n690
*1116 mult_35/n691
*1117 mult_35/n692
*1118 mult_35/n693
*1119 mult_35/n694
*1120 mult_35/n695
*1121 mult_35/n696
*1122 mult_35/n697
*1123 mult_35/n698
*1124 mult_35/n699
*1125 mult_35/n700
*1126 mult_35/n701
*1127 mult_35/n702
*1128 mult_35/n703
*1129 mult_35/n704
*1130 mult_35/n705
*1131 mult_35/n706
*1132 mult_35/n707
*1133 mult_35/n708
*1134 mult_35/n709
*1135 mult_35/n710
*1136 mult_35/n711
*1137 mult_35/n712
*1138 mult_35/n713
*1139 mult_35/n714
*1140 mult_35/n715
*1141 mult_35/n716
*1142 mult_35/n717
*1143 mult_35/n718
*1144 mult_35/n719
*1145 mult_35/n720
*1146 mult_35/n721
*1147 mult_35/n722
*1148 mult_35/n723
*1149 mult_35/n724
*1150 mult_35/n725
*1151 mult_35/n726
*1152 mult_35/n727
*1153 mult_35/n728
*1154 mult_35/n729
*1155 mult_35/n730
*1156 mult_35/n731
*1157 mult_35/n732
*1158 mult_35/n733
*1159 mult_35/n734
*1160 mult_35/n735
*1161 mult_35/n736
*1162 mult_35/n737
*1163 mult_35/n738
*1164 mult_35/n739
*1165 mult_35/n740
*1166 mult_35/n741
*1167 mult_35/n742
*1168 mult_35/n743
*1169 mult_35/n744
*1170 mult_35/n745
*1171 mult_35/n746
*1172 mult_35/n747
*1173 mult_35/n748
*1174 mult_35/n749
*1175 mult_35/n750
*1176 mult_35/n751
*1177 mult_39/n32
*1178 mult_39/n33
*1179 mult_39/n34
*1180 mult_39/n35
*1181 mult_39/n36
*1182 mult_39/n37
*1183 mult_39/n38
*1184 mult_39/n58
*1185 mult_39/n59
*1186 mult_39/n60
*1187 mult_39/n61
*1188 mult_39/n62
*1189 mult_39/n64
*1190 mult_39/n65
*1191 mult_39/n66
*1192 mult_39/n67
*1193 mult_39/n68
*1194 mult_39/n69
*1195 mult_39/n70
*1196 mult_39/n71
*1197 mult_39/n72
*1198 mult_39/n74
*1199 mult_39/n75
*1200 mult_39/n76
*1201 mult_39/n77
*1202 mult_39/n78
*1203 mult_39/n79
*1204 mult_39/n80
*1205 mult_39/n81
*1206 mult_39/n82
*1207 mult_39/n83
*1208 mult_39/n84
*1209 mult_39/n85
*1210 mult_39/n86
*1211 mult_39/n88
*1212 mult_39/n89
*1213 mult_39/n90
*1214 mult_39/n91
*1215 mult_39/n92
*1216 mult_39/n93
*1217 mult_39/n94
*1218 mult_39/n95
*1219 mult_39/n96
*1220 mult_39/n97
*1221 mult_39/n98
*1222 mult_39/n99
*1223 mult_39/n100
*1224 mult_39/n101
*1225 mult_39/n102
*1226 mult_39/n103
*1227 mult_39/n104
*1228 mult_39/n106
*1229 mult_39/n107
*1230 mult_39/n108
*1231 mult_39/n109
*1232 mult_39/n110
*1233 mult_39/n111
*1234 mult_39/n112
*1235 mult_39/n113
*1236 mult_39/n114
*1237 mult_39/n115
*1238 mult_39/n116
*1239 mult_39/n117
*1240 mult_39/n118
*1241 mult_39/n119
*1242 mult_39/n120
*1243 mult_39/n121
*1244 mult_39/n122
*1245 mult_39/n123
*1246 mult_39/n124
*1247 mult_39/n125
*1248 mult_39/n126
*1249 mult_39/n128
*1250 mult_39/n129
*1251 mult_39/n130
*1252 mult_39/n131
*1253 mult_39/n132
*1254 mult_39/n133
*1255 mult_39/n134
*1256 mult_39/n135
*1257 mult_39/n136
*1258 mult_39/n137
*1259 mult_39/n138
*1260 mult_39/n139
*1261 mult_39/n140
*1262 mult_39/n141
*1263 mult_39/n142
*1264 mult_39/n143
*1265 mult_39/n144
*1266 mult_39/n145
*1267 mult_39/n146
*1268 mult_39/n147
*1269 mult_39/n148
*1270 mult_39/n149
*1271 mult_39/n150
*1272 mult_39/n151
*1273 mult_39/n152
*1274 mult_39/n153
*1275 mult_39/n154
*1276 mult_39/n155
*1277 mult_39/n156
*1278 mult_39/n157
*1279 mult_39/n158
*1280 mult_39/n159
*1281 mult_39/n160
*1282 mult_39/n161
*1283 mult_39/n162
*1284 mult_39/n163
*1285 mult_39/n164
*1286 mult_39/n165
*1287 mult_39/n166
*1288 mult_39/n167
*1289 mult_39/n168
*1290 mult_39/n169
*1291 mult_39/n170
*1292 mult_39/n171
*1293 mult_39/n172
*1294 mult_39/n173
*1295 mult_39/n174
*1296 mult_39/n175
*1297 mult_39/n176
*1298 mult_39/n177
*1299 mult_39/n178
*1300 mult_39/n179
*1301 mult_39/n180
*1302 mult_39/n181
*1303 mult_39/n182
*1304 mult_39/n183
*1305 mult_39/n184
*1306 mult_39/n185
*1307 mult_39/n186
*1308 mult_39/n187
*1309 mult_39/n188
*1310 mult_39/n189
*1311 mult_39/n190
*1312 mult_39/n191
*1313 mult_39/n192
*1314 mult_39/n193
*1315 mult_39/n194
*1316 mult_39/n195
*1317 mult_39/n196
*1318 mult_39/n197
*1319 mult_39/n198
*1320 mult_39/n199
*1321 mult_39/n200
*1322 mult_39/n201
*1323 mult_39/n202
*1324 mult_39/n203
*1325 mult_39/n204
*1326 mult_39/n205
*1327 mult_39/n206
*1328 mult_39/n207
*1329 mult_39/n208
*1330 mult_39/n209
*1331 mult_39/n210
*1332 mult_39/n211
*1333 mult_39/n212
*1334 mult_39/n213
*1335 mult_39/n214
*1336 mult_39/n215
*1337 mult_39/n216
*1338 mult_39/n217
*1339 mult_39/n218
*1340 mult_39/n219
*1341 mult_39/n220
*1342 mult_39/n221
*1343 mult_39/n222
*1344 mult_39/n223
*1345 mult_39/n243
*1346 mult_39/n244
*1347 mult_39/n245
*1348 mult_39/n246
*1349 mult_39/n247
*1350 mult_39/n251
*1351 mult_39/n252
*1352 mult_39/n253
*1353 mult_39/n254
*1354 mult_39/n255
*1355 mult_39/n256
*1356 mult_39/n257
*1357 mult_39/n258
*1358 mult_39/n259
*1359 mult_39/n260
*1360 mult_39/n261
*1361 mult_39/n262
*1362 mult_39/n263
*1363 mult_39/n264
*1364 mult_39/n266
*1365 mult_39/n267
*1366 mult_39/n268
*1367 mult_39/n269
*1368 mult_39/n270
*1369 mult_39/n271
*1370 mult_39/n272
*1371 mult_39/n273
*1372 mult_39/n275
*1373 mult_39/n276
*1374 mult_39/n277
*1375 mult_39/n278
*1376 mult_39/n279
*1377 mult_39/n281
*1378 mult_39/n282
*1379 mult_39/n283
*1380 mult_39/n284
*1381 mult_39/n285
*1382 mult_39/n286
*1383 mult_39/n287
*1384 mult_39/n288
*1385 mult_39/n289
*1386 mult_39/n290
*1387 mult_39/n291
*1388 mult_39/n292
*1389 mult_39/n293
*1390 mult_39/n294
*1391 mult_39/n296
*1392 mult_39/n297
*1393 mult_39/n298
*1394 mult_39/n299
*1395 mult_39/n300
*1396 mult_39/n301
*1397 mult_39/n302
*1398 mult_39/n303
*1399 mult_39/n304
*1400 mult_39/n305
*1401 mult_39/n306
*1402 mult_39/n307
*1403 mult_39/n308
*1404 mult_39/n309
*1405 mult_39/n311
*1406 mult_39/n312
*1407 mult_39/n314
*1408 mult_39/n315
*1409 mult_39/n316
*1410 mult_39/n317
*1411 mult_39/n318
*1412 mult_39/n319
*1413 mult_39/n320
*1414 mult_39/n321
*1415 mult_39/n322
*1416 mult_39/n323
*1417 mult_39/n324
*1418 mult_39/n325
*1419 mult_39/n326
*1420 mult_39/n327
*1421 mult_39/n328
*1422 mult_39/n329
*1423 mult_39/n330
*1424 mult_39/n331
*1425 mult_39/n332
*1426 mult_39/n333
*1427 mult_39/n334
*1428 mult_39/n335
*1429 mult_39/n336
*1430 mult_39/n337
*1431 mult_39/n338
*1432 mult_39/n341
*1433 mult_39/n342
*1434 mult_39/n343
*1435 mult_39/n344
*1436 mult_39/n345
*1437 mult_39/n346
*1438 mult_39/n347
*1439 mult_39/n348
*1440 mult_39/n349
*1441 mult_39/n350
*1442 mult_39/n351
*1443 mult_39/n352
*1444 mult_39/n556
*1445 mult_39/n557
*1446 mult_39/n558
*1447 mult_39/n559
*1448 mult_39/n560
*1449 mult_39/n561
*1450 mult_39/n562
*1451 mult_39/n563
*1452 mult_39/n564
*1453 mult_39/n565
*1454 mult_39/n566
*1455 mult_39/n567
*1456 mult_39/n568
*1457 mult_39/n569
*1458 mult_39/n570
*1459 mult_39/n571
*1460 mult_39/n572
*1461 mult_39/n573
*1462 mult_39/n574
*1463 mult_39/n575
*1464 mult_39/n576
*1465 mult_39/n577
*1466 mult_39/n578
*1467 mult_39/n579
*1468 mult_39/n580
*1469 mult_39/n581
*1470 mult_39/n582
*1471 mult_39/n583
*1472 mult_39/n584
*1473 mult_39/n585
*1474 mult_39/n586
*1475 mult_39/n587
*1476 mult_39/n588
*1477 mult_39/n589
*1478 mult_39/n590
*1479 mult_39/n591
*1480 mult_39/n592
*1481 mult_39/n593
*1482 mult_39/n594
*1483 mult_39/n595
*1484 mult_39/n596
*1485 mult_39/n597
*1486 mult_39/n598
*1487 mult_39/n599
*1488 mult_39/n600
*1489 mult_39/n601
*1490 mult_39/n602
*1491 mult_39/n603
*1492 mult_39/n604
*1493 mult_39/n605
*1494 mult_39/n606
*1495 mult_39/n607
*1496 mult_39/n608
*1497 mult_39/n609
*1498 mult_39/n610
*1499 mult_39/n611
*1500 mult_39/n612
*1501 mult_39/n613
*1502 mult_39/n614
*1503 mult_39/n615
*1504 mult_39/n616
*1505 mult_39/n617
*1506 mult_39/n618
*1507 mult_39/n619
*1508 mult_39/n620
*1509 mult_39/n621
*1510 mult_39/n622
*1511 mult_39/n623
*1512 mult_39/n624
*1513 mult_39/n625
*1514 mult_39/n626
*1515 mult_39/n627
*1516 mult_39/n628
*1517 mult_39/n629
*1518 mult_39/n630
*1519 mult_39/n631
*1520 mult_39/n632
*1521 mult_39/n633
*1522 mult_39/n634
*1523 mult_39/n635
*1524 mult_39/n636
*1525 mult_39/n637
*1526 mult_39/n638
*1527 mult_39/n639
*1528 mult_39/n640
*1529 mult_39/n641
*1530 mult_39/n642
*1531 mult_39/n643
*1532 mult_39/n644
*1533 mult_39/n645
*1534 mult_39/n646
*1535 mult_39/n647
*1536 mult_39/n648
*1537 mult_39/n649
*1538 mult_39/n650
*1539 mult_39/n651
*1540 mult_39/n652
*1541 mult_39/n653
*1542 mult_39/n654
*1543 mult_39/n655
*1544 mult_39/n656
*1545 mult_39/n657
*1546 mult_39/n658
*1547 mult_39/n659
*1548 mult_39/n660
*1549 mult_39/n661
*1550 mult_39/n662
*1551 mult_39/n663
*1552 mult_39/n664
*1553 mult_39/n665
*1554 mult_39/n666
*1555 mult_39/n667
*1556 mult_39/n668
*1557 mult_39/n669
*1558 mult_39/n670
*1559 mult_39/n671
*1560 mult_39/n672
*1561 mult_39/n673
*1562 mult_39/n674
*1563 mult_39/n675
*1564 mult_39/n676
*1565 mult_39/n677
*1566 mult_39/n678
*1567 mult_39/n679
*1568 mult_39/n680
*1569 mult_39/n681
*1570 mult_39/n682
*1571 mult_39/n683
*1572 mult_39/n684
*1573 mult_39/n685
*1574 mult_39/n686
*1575 mult_39/n687
*1576 mult_39/n688
*1577 mult_39/n689
*1578 mult_39/n690
*1579 mult_39/n691
*1580 mult_39/n692
*1581 mult_39/n693
*1582 mult_39/n694
*1583 mult_39/n695
*1584 mult_39/n696
*1585 mult_39/n697
*1586 mult_39/n698
*1587 mult_39/n699
*1588 mult_39/n700
*1589 mult_39/n701
*1590 mult_39/n702
*1591 mult_39/n703
*1592 mult_39/n704
*1593 mult_39/n705
*1594 mult_39/n706
*1595 mult_39/n707
*1596 mult_39/n708
*1597 mult_39/n709
*1598 mult_39/n710
*1599 mult_39/n711
*1600 mult_39/n712
*1601 mult_39/n713
*1602 mult_39/n714
*1603 mult_39/n715
*1604 mult_39/n716
*1605 mult_39/n717
*1606 mult_39/n718
*1607 mult_39/n719
*1608 mult_39/n720
*1609 mult_39/n721
*1610 mult_39/n722
*1611 mult_39/n723
*1612 mult_39/n724
*1613 mult_39/n725
*1614 mult_39/n726
*1615 mult_39/n727
*1616 mult_39/n728
*1617 mult_39/n729
*1618 mult_39/n730
*1619 mult_39/n731
*1620 mult_39/n732
*1621 mult_39/n733
*1622 mult_39/n734
*1623 mult_39/n735
*1624 mult_39/n736
*1625 mult_39/n737
*1626 mult_39/n738
*1627 mult_39/n739
*1628 mult_39/n740
*1629 mult_39/n741
*1630 mult_39/n742
*1631 mult_39/n743
*1632 mult_39/n744
*1633 mult_39/n745
*1634 mult_39/n746
*1635 mult_39/n747
*1636 mult_39/n748
*1637 mult_39/n749
*1638 mult_39/n750
*1639 mult_39/n751
*1640 mult_39/n752
*1641 mult_39/n753
*1642 mult_39/n754
*1643 DOUT[6]
*1644 DOUT[5]
*1645 DOUT[4]
*1646 DOUT[3]
*1647 DOUT[2]
*1648 DOUT[1]
*1649 DOUT[0]
*1650 FE_PHC2_n53
*1651 FE_PHC1_n60
*1652 FE_PHC0_n53
*1653 FE_OFC0_w_past_0
*1654 w_past_reg\[14\]
*1655 w_past_reg\[13\]
*1656 w_past_reg\[12\]
*1657 w_past_reg\[11\]
*1658 w_past_reg\[10\]
*1659 w_past_reg\[9\]
*1660 w_past_reg\[8\]
*1661 w_past_reg\[7\]
*1662 w_past_reg\[6\]
*1663 w_past_reg\[5\]
*1664 w_past_reg\[4\]
*1665 w_past_reg\[3\]
*1666 w_past_reg\[2\]
*1667 w_past_reg\[1\]
*1668 w_past_reg\[0\]
*1669 VOUT_reg
*1670 DOUT_reg\[13\]
*1671 DOUT_reg\[12\]
*1672 DOUT_reg\[11\]
*1673 DOUT_reg\[10\]
*1674 DOUT_reg\[9\]
*1675 DOUT_reg\[8\]
*1676 DOUT_reg\[7\]
*1677 add_40/U1_6
*1678 add_40/U1_5
*1679 add_40/U1_4
*1680 add_40/U1_3
*1681 add_40/U1_2
*1682 add_40/U1_1
*1683 add_40/U1
*1684 add_40/U2
*1685 mult_38/FE_RC_14_0
*1686 mult_38/FE_RC_13_0
*1687 mult_38/FE_RC_12_0
*1688 mult_38/FE_RC_11_0
*1689 mult_38/FE_RC_10_0
*1690 mult_38/U33
*1691 mult_38/U34
*1692 mult_38/U35
*1693 mult_38/U36
*1694 mult_38/U37
*1695 mult_38/U38
*1696 mult_38/U59
*1697 mult_38/U60
*1698 mult_38/U62
*1699 mult_38/U63
*1700 mult_38/U64