*SPEF "IEEE 1481-1998"
*DESIGN "IIR_FILTER"
*DATE "Mon Nov  1 18:36:26 2021"
*VENDOR "Cadence Design Systems, Inc."
*PROGRAM "Innovus"
*VERSION "17.11-s080_1"
*DESIGN_FLOW "PIN_CAP NONE" "NAME_SCOPE LOCAL"
*DIVIDER /
*DELIMITER :
*BUS_DELIMITER []
*T_UNIT 1 NS
*C_UNIT 1 PF
*R_UNIT 1 OHM
*L_UNIT 1 HENRY

// MMMC spef file for corner 'my_rc'

*NAME_MAP

*1 DIN[13]
*2 DIN[12]
*3 DIN[11]
*4 DIN[10]
*5 DIN[9]
*6 DIN[8]
*7 DIN[7]
*8 DIN[6]
*9 DIN[5]
*10 DIN[4]
*11 DIN[3]
*12 DIN[2]
*13 DIN[1]
*14 DIN[0]
*15 VIN
*16 RST_n
*17 CLK
*18 a1[13]
*19 a1[12]
*20 a1[11]
*21 a1[10]
*22 a1[9]
*23 a1[8]
*24 a1[7]
*25 a1[6]
*26 a1[5]
*27 a1[4]
*28 a1[3]
*29 a1[2]
*30 a1[1]
*31 a1[0]
*32 a1_2[13]
*33 a1_2[12]
*34 a1_2[11]
*35 a1_2[10]
*36 a1_2[9]
*37 a1_2[8]
*38 a1_2[7]
*39 a1_2[6]
*40 a1_2[5]
*41 a1_2[4]
*42 a1_2[3]
*43 a1_2[2]
*44 a1_2[1]
*45 a1_2[0]
*46 b0[13]
*47 b0[12]
*48 b0[11]
*49 b0[10]
*50 b0[9]
*51 b0[8]
*52 b0[7]
*53 b0[6]
*54 b0[5]
*55 b0[4]
*56 b0[3]
*57 b0[2]
*58 b0[1]
*59 b0[0]
*60 b1[13]
*61 b1[12]
*62 b1[11]
*63 b1[10]
*64 b1[9]
*65 b1[8]
*66 b1[7]
*67 b1[6]
*68 b1[5]
*69 b1[4]
*70 b1[3]
*71 b1[2]
*72 b1[1]
*73 b1[0]
*74 DOUT[13]
*75 DOUT[12]
*76 DOUT[11]
*77 DOUT[10]
*78 DOUT[9]
*79 DOUT[8]
*80 DOUT[7]
*81 VOUT
*82 n86
*83 n87
*84 n88
*85 n89
*86 n90
*87 n91
*88 n92
*89 n93
*90 n94
*91 n95
*92 n96
*93 n97
*94 n98
*95 n99
*96 n100
*97 n101
*98 n102
*99 n103
*100 n104
*101 n105
*102 n106
*103 n107
*104 n108
*105 n109
*106 n110
*107 n111
*108 n112
*109 n113
*110 n114
*111 n115
*112 n116
*113 n117
*114 n118
*115 n119
*116 n120
*117 n121
*118 n122
*119 n123
*120 n124
*121 n125
*122 n126
*123 n127
*124 n128
*125 n129
*126 n130
*127 n131
*128 n132
*129 n133
*130 n134
*131 n135
*132 n136
*133 n137
*134 n138
*135 n139
*136 n140
*137 n141
*138 n142
*139 n143
*140 n144
*141 n145
*142 n146
*143 n147
*144 n148
*145 n149
*146 n150
*147 n151
*148 n152
*149 n153
*150 n154
*151 n155
*152 n156
*153 n157
*154 n158
*155 n159
*156 n160
*157 n161
*158 n162
*159 n163
*160 n164
*161 n165
*162 add_0_root_add_0_root_add_41_B_0_
*163 add_0_root_add_0_root_add_41_B_1_
*164 add_0_root_add_0_root_add_41_B_2_
*165 add_0_root_add_0_root_add_41_B_3_
*166 add_0_root_add_0_root_add_41_B_4_
*167 add_0_root_add_0_root_add_41_B_5_
*168 add_0_root_add_0_root_add_41_B_6_
*169 add_0_root_add_0_root_add_41_B_7_
*170 add_0_root_add_0_root_add_41_B_8_
*171 add_0_root_add_0_root_add_41_B_9_
*172 add_0_root_add_0_root_add_41_B_10_
*173 add_0_root_add_0_root_add_41_B_11_
*174 add_0_root_add_0_root_add_41_B_12_
*175 add_0_root_add_0_root_add_41_B_13_
*176 add_0_root_add_0_root_add_41_B_14_
*177 n180
*178 n181
*179 n182
*180 n183
*181 n184
*182 n185
*183 n186
*184 n187
*185 n188
*186 n189
*187 n190
*188 n191
*189 n192
*190 n193
*191 n194
*192 n195
*193 n196
*194 n197
*195 n198
*196 n199
*197 n200
*198 n201
*199 n202
*200 n203
*201 n204
*202 n205
*203 n206
*204 n207
*205 n208
*206 n209
*207 n210
*208 n211
*209 n212
*210 n213
*211 n214
*212 n215
*213 n216
*214 n217
*215 n218
*216 n219
*217 n220
*218 n221
*219 n222
*220 n223
*221 n224
*222 n225
*223 n226
*224 n227
*225 n228
*226 n229
*227 n230
*228 n231
*229 n232
*230 n233
*231 n234
*232 n235
*233 n236
*234 n237
*235 n238
*236 n239
*237 n240
*238 n241
*239 n242
*240 n243
*241 n244
*242 n245
*243 n246
*244 n247
*245 n248
*246 n249
*247 n250
*248 n251
*249 n252
*250 n253
*251 n254
*252 n255
*253 n256
*254 n257
*255 add_57_n2
*256 mult_53_n754
*257 mult_53_n753
*258 mult_53_n752
*259 mult_53_n751
*260 mult_53_n750
*261 mult_53_n749
*262 mult_53_n748
*263 mult_53_n747
*264 mult_53_n746
*265 mult_53_n745
*266 mult_53_n744
*267 mult_53_n743
*268 mult_53_n742
*269 mult_53_n741
*270 mult_53_n740
*271 mult_53_n739
*272 mult_53_n738
*273 mult_53_n737
*274 mult_53_n736
*275 mult_53_n735
*276 mult_53_n734
*277 mult_53_n733
*278 mult_53_n732
*279 mult_53_n731
*280 mult_53_n730
*281 mult_53_n729
*282 mult_53_n728
*283 mult_53_n727
*284 mult_53_n726
*285 mult_53_n725
*286 mult_53_n724
*287 mult_53_n723
*288 mult_53_n722
*289 mult_53_n721
*290 mult_53_n720
*291 mult_53_n719
*292 mult_53_n718
*293 mult_53_n717
*294 mult_53_n716
*295 mult_53_n715
*296 mult_53_n714
*297 mult_53_n713
*298 mult_53_n712
*299 mult_53_n711
*300 mult_53_n710
*301 mult_53_n709
*302 mult_53_n708
*303 mult_53_n707
*304 mult_53_n706
*305 mult_53_n705
*306 mult_53_n704
*307 mult_53_n703
*308 mult_53_n702
*309 mult_53_n701
*310 mult_53_n700
*311 mult_53_n699
*312 mult_53_n698
*313 mult_53_n697
*314 mult_53_n696
*315 mult_53_n695
*316 mult_53_n694
*317 mult_53_n693
*318 mult_53_n692
*319 mult_53_n691
*320 mult_53_n690
*321 mult_53_n689
*322 mult_53_n688
*323 mult_53_n687
*324 mult_53_n686
*325 mult_53_n685
*326 mult_53_n684
*327 mult_53_n683
*328 mult_53_n682
*329 mult_53_n681
*330 mult_53_n680
*331 mult_53_n679
*332 mult_53_n678
*333 mult_53_n677
*334 mult_53_n676
*335 mult_53_n675
*336 mult_53_n674
*337 mult_53_n673
*338 mult_53_n672
*339 mult_53_n671
*340 mult_53_n670
*341 mult_53_n669
*342 mult_53_n668
*343 mult_53_n667
*344 mult_53_n666
*345 mult_53_n665
*346 mult_53_n664
*347 mult_53_n663
*348 mult_53_n662
*349 mult_53_n661
*350 mult_53_n660
*351 mult_53_n659
*352 mult_53_n658
*353 mult_53_n657
*354 mult_53_n656
*355 mult_53_n655
*356 mult_53_n654
*357 mult_53_n653
*358 mult_53_n652
*359 mult_53_n651
*360 mult_53_n650
*361 mult_53_n649
*362 mult_53_n648
*363 mult_53_n647
*364 mult_53_n646
*365 mult_53_n645
*366 mult_53_n644
*367 mult_53_n643
*368 mult_53_n642
*369 mult_53_n641
*370 mult_53_n640
*371 mult_53_n639
*372 mult_53_n638
*373 mult_53_n637
*374 mult_53_n636
*375 mult_53_n635
*376 mult_53_n634
*377 mult_53_n633
*378 mult_53_n632
*379 mult_53_n631
*380 mult_53_n630
*381 mult_53_n629
*382 mult_53_n628
*383 mult_53_n627
*384 mult_53_n626
*385 mult_53_n625
*386 mult_53_n624
*387 mult_53_n623
*388 mult_53_n622
*389 mult_53_n621
*390 mult_53_n620
*391 mult_53_n619
*392 mult_53_n618
*393 mult_53_n617
*394 mult_53_n616
*395 mult_53_n615
*396 mult_53_n614
*397 mult_53_n613
*398 mult_53_n612
*399 mult_53_n611
*400 mult_53_n610
*401 mult_53_n609
*402 mult_53_n608
*403 mult_53_n607
*404 mult_53_n606
*405 mult_53_n605
*406 mult_53_n604
*407 mult_53_n603
*408 mult_53_n602
*409 mult_53_n601
*410 mult_53_n600
*411 mult_53_n599
*412 mult_53_n598
*413 mult_53_n597
*414 mult_53_n596
*415 mult_53_n595
*416 mult_53_n594
*417 mult_53_n593
*418 mult_53_n592
*419 mult_53_n591
*420 mult_53_n590
*421 mult_53_n589
*422 mult_53_n588
*423 mult_53_n587
*424 mult_53_n586
*425 mult_53_n585
*426 mult_53_n584
*427 mult_53_n583
*428 mult_53_n582
*429 mult_53_n581
*430 mult_53_n580
*431 mult_53_n579
*432 mult_53_n578
*433 mult_53_n577
*434 mult_53_n576
*435 mult_53_n575
*436 mult_53_n574
*437 mult_53_n573
*438 mult_53_n572
*439 mult_53_n571
*440 mult_53_n570
*441 mult_53_n569
*442 mult_53_n568
*443 mult_53_n567
*444 mult_53_n566
*445 mult_53_n565
*446 mult_53_n564
*447 mult_53_n563
*448 mult_53_n562
*449 mult_53_n561
*450 mult_53_n560
*451 mult_53_n559
*452 mult_53_n558
*453 mult_53_n557
*454 mult_53_n556
*455 mult_53_n352
*456 mult_53_n351
*457 mult_53_n350
*458 mult_53_n349
*459 mult_53_n348
*460 mult_53_n347
*461 mult_53_n346
*462 mult_53_n345
*463 mult_53_n344
*464 mult_53_n343
*465 mult_53_n342
*466 mult_53_n341
*467 mult_53_n338
*468 mult_53_n337
*469 mult_53_n336
*470 mult_53_n335
*471 mult_53_n334
*472 mult_53_n333
*473 mult_53_n332
*474 mult_53_n331
*475 mult_53_n330
*476 mult_53_n329
*477 mult_53_n328
*478 mult_53_n327
*479 mult_53_n326
*480 mult_53_n325
*481 mult_53_n324
*482 mult_53_n323
*483 mult_53_n322
*484 mult_53_n321
*485 mult_53_n320
*486 mult_53_n319
*487 mult_53_n318
*488 mult_53_n317
*489 mult_53_n316
*490 mult_53_n315
*491 mult_53_n314
*492 mult_53_n312
*493 mult_53_n311
*494 mult_53_n309
*495 mult_53_n308
*496 mult_53_n307
*497 mult_53_n306
*498 mult_53_n305
*499 mult_53_n304
*500 mult_53_n303
*501 mult_53_n302
*502 mult_53_n301
*503 mult_53_n300
*504 mult_53_n299
*505 mult_53_n298
*506 mult_53_n297
*507 mult_53_n296
*508 mult_53_n294
*509 mult_53_n293
*510 mult_53_n292
*511 mult_53_n291
*512 mult_53_n290
*513 mult_53_n289
*514 mult_53_n288
*515 mult_53_n287
*516 mult_53_n286
*517 mult_53_n285
*518 mult_53_n284
*519 mult_53_n283
*520 mult_53_n282
*521 mult_53_n281
*522 mult_53_n279
*523 mult_53_n278
*524 mult_53_n277
*525 mult_53_n276
*526 mult_53_n275
*527 mult_53_n273
*528 mult_53_n272
*529 mult_53_n271
*530 mult_53_n270
*531 mult_53_n269
*532 mult_53_n268
*533 mult_53_n267
*534 mult_53_n266
*535 mult_53_n264
*536 mult_53_n263
*537 mult_53_n262
*538 mult_53_n261
*539 mult_53_n260
*540 mult_53_n259
*541 mult_53_n258
*542 mult_53_n257
*543 mult_53_n256
*544 mult_53_n255
*545 mult_53_n254
*546 mult_53_n253
*547 mult_53_n252
*548 mult_53_n251
*549 mult_53_n247
*550 mult_53_n246
*551 mult_53_n245
*552 mult_53_n244
*553 mult_53_n243
*554 mult_53_n223
*555 mult_53_n222
*556 mult_53_n221
*557 mult_53_n220
*558 mult_53_n219
*559 mult_53_n218
*560 mult_53_n217
*561 mult_53_n216
*562 mult_53_n215
*563 mult_53_n214
*564 mult_53_n213
*565 mult_53_n212
*566 mult_53_n211
*567 mult_53_n210
*568 mult_53_n209
*569 mult_53_n208
*570 mult_53_n207
*571 mult_53_n206
*572 mult_53_n205
*573 mult_53_n204
*574 mult_53_n203
*575 mult_53_n202
*576 mult_53_n201
*577 mult_53_n200
*578 mult_53_n199
*579 mult_53_n198
*580 mult_53_n197
*581 mult_53_n196
*582 mult_53_n195
*583 mult_53_n194
*584 mult_53_n193
*585 mult_53_n192
*586 mult_53_n191
*587 mult_53_n190
*588 mult_53_n189
*589 mult_53_n188
*590 mult_53_n187
*591 mult_53_n186
*592 mult_53_n185
*593 mult_53_n184
*594 mult_53_n183
*595 mult_53_n182
*596 mult_53_n181
*597 mult_53_n180
*598 mult_53_n179
*599 mult_53_n178
*600 mult_53_n177
*601 mult_53_n176
*602 mult_53_n175
*603 mult_53_n174
*604 mult_53_n173
*605 mult_53_n172
*606 mult_53_n171
*607 mult_53_n170
*608 mult_53_n169
*609 mult_53_n168
*610 mult_53_n167
*611 mult_53_n166
*612 mult_53_n165
*613 mult_53_n164
*614 mult_53_n163
*615 mult_53_n162
*616 mult_53_n161
*617 mult_53_n160
*618 mult_53_n159
*619 mult_53_n158
*620 mult_53_n157
*621 mult_53_n156
*622 mult_53_n155
*623 mult_53_n154
*624 mult_53_n153
*625 mult_53_n152
*626 mult_53_n151
*627 mult_53_n150
*628 mult_53_n149
*629 mult_53_n148
*630 mult_53_n147
*631 mult_53_n146
*632 mult_53_n145
*633 mult_53_n144
*634 mult_53_n143
*635 mult_53_n142
*636 mult_53_n141
*637 mult_53_n140
*638 mult_53_n139
*639 mult_53_n138
*640 mult_53_n137
*641 mult_53_n136
*642 mult_53_n135
*643 mult_53_n134
*644 mult_53_n133
*645 mult_53_n132
*646 mult_53_n131
*647 mult_53_n130
*648 mult_53_n129
*649 mult_53_n128
*650 mult_53_n126
*651 mult_53_n125
*652 mult_53_n124
*653 mult_53_n123
*654 mult_53_n122
*655 mult_53_n121
*656 mult_53_n120
*657 mult_53_n119
*658 mult_53_n118
*659 mult_53_n117
*660 mult_53_n116
*661 mult_53_n115
*662 mult_53_n114
*663 mult_53_n113
*664 mult_53_n112
*665 mult_53_n111
*666 mult_53_n110
*667 mult_53_n109
*668 mult_53_n108
*669 mult_53_n107
*670 mult_53_n106
*671 mult_53_n104
*672 mult_53_n103
*673 mult_53_n102
*674 mult_53_n101
*675 mult_53_n100
*676 mult_53_n99
*677 mult_53_n98
*678 mult_53_n97
*679 mult_53_n96
*680 mult_53_n95
*681 mult_53_n94
*682 mult_53_n93
*683 mult_53_n92
*684 mult_53_n91
*685 mult_53_n90
*686 mult_53_n89
*687 mult_53_n88
*688 mult_53_n86
*689 mult_53_n85
*690 mult_53_n84
*691 mult_53_n83
*692 mult_53_n82
*693 mult_53_n81
*694 mult_53_n80
*695 mult_53_n79
*696 mult_53_n78
*697 mult_53_n77
*698 mult_53_n76
*699 mult_53_n75
*700 mult_53_n74
*701 mult_53_n72
*702 mult_53_n71
*703 mult_53_n70
*704 mult_53_n69
*705 mult_53_n68
*706 mult_53_n67
*707 mult_53_n66
*708 mult_53_n65
*709 mult_53_n64
*710 mult_53_n62
*711 mult_53_n61
*712 mult_53_n60
*713 mult_53_n59
*714 mult_53_n58
*715 mult_53_n38
*716 mult_53_n37
*717 mult_53_n36
*718 mult_53_n35
*719 mult_53_n34
*720 mult_53_n33
*721 mult_53_n32
*722 mult_49_n754
*723 mult_49_n753
*724 mult_49_n752
*725 mult_49_n751
*726 mult_49_n750
*727 mult_49_n749
*728 mult_49_n748
*729 mult_49_n747
*730 mult_49_n746
*731 mult_49_n745
*732 mult_49_n744
*733 mult_49_n743
*734 mult_49_n742
*735 mult_49_n741
*736 mult_49_n740
*737 mult_49_n739
*738 mult_49_n738
*739 mult_49_n737
*740 mult_49_n736
*741 mult_49_n735
*742 mult_49_n734
*743 mult_49_n733
*744 mult_49_n732
*745 mult_49_n731
*746 mult_49_n730
*747 mult_49_n729
*748 mult_49_n728
*749 mult_49_n727
*750 mult_49_n726
*751 mult_49_n725
*752 mult_49_n724
*753 mult_49_n723
*754 mult_49_n722
*755 mult_49_n721
*756 mult_49_n720
*757 mult_49_n719
*758 mult_49_n718
*759 mult_49_n717
*760 mult_49_n716
*761 mult_49_n715
*762 mult_49_n714
*763 mult_49_n713
*764 mult_49_n712
*765 mult_49_n711
*766 mult_49_n710
*767 mult_49_n709
*768 mult_49_n708
*769 mult_49_n707
*770 mult_49_n706
*771 mult_49_n705
*772 mult_49_n704
*773 mult_49_n703
*774 mult_49_n702
*775 mult_49_n701
*776 mult_49_n700
*777 mult_49_n699
*778 mult_49_n698
*779 mult_49_n697
*780 mult_49_n696
*781 mult_49_n695
*782 mult_49_n694
*783 mult_49_n693
*784 mult_49_n692
*785 mult_49_n691
*786 mult_49_n690
*787 mult_49_n689
*788 mult_49_n688
*789 mult_49_n687
*790 mult_49_n686
*791 mult_49_n685
*792 mult_49_n684
*793 mult_49_n683
*794 mult_49_n682
*795 mult_49_n681
*796 mult_49_n680
*797 mult_49_n679
*798 mult_49_n678
*799 mult_49_n677
*800 mult_49_n676
*801 mult_49_n675
*802 mult_49_n674
*803 mult_49_n673
*804 mult_49_n672
*805 mult_49_n671
*806 mult_49_n670
*807 mult_49_n669
*808 mult_49_n668
*809 mult_49_n667
*810 mult_49_n666
*811 mult_49_n665
*812 mult_49_n664
*813 mult_49_n663
*814 mult_49_n662
*815 mult_49_n661
*816 mult_49_n660
*817 mult_49_n659
*818 mult_49_n658
*819 mult_49_n657
*820 mult_49_n656
*821 mult_49_n655
*822 mult_49_n654
*823 mult_49_n653
*824 mult_49_n652
*825 mult_49_n651
*826 mult_49_n650
*827 mult_49_n649
*828 mult_49_n648
*829 mult_49_n647
*830 mult_49_n646
*831 mult_49_n645
*832 mult_49_n644
*833 mult_49_n643
*834 mult_49_n642
*835 mult_49_n641
*836 mult_49_n640
*837 mult_49_n639
*838 mult_49_n638
*839 mult_49_n637
*840 mult_49_n636
*841 mult_49_n635
*842 mult_49_n634
*843 mult_49_n633
*844 mult_49_n632
*845 mult_49_n631
*846 mult_49_n630
*847 mult_49_n629
*848 mult_49_n628
*849 mult_49_n627
*850 mult_49_n626
*851 mult_49_n625
*852 mult_49_n624
*853 mult_49_n623
*854 mult_49_n622
*855 mult_49_n621
*856 mult_49_n620
*857 mult_49_n619
*858 mult_49_n618
*859 mult_49_n617
*860 mult_49_n616
*861 mult_49_n615
*862 mult_49_n614
*863 mult_49_n613
*864 mult_49_n612
*865 mult_49_n611
*866 mult_49_n610
*867 mult_49_n609
*868 mult_49_n608
*869 mult_49_n607
*870 mult_49_n606
*871 mult_49_n605
*872 mult_49_n604
*873 mult_49_n603
*874 mult_49_n602
*875 mult_49_n601
*876 mult_49_n600
*877 mult_49_n599
*878 mult_49_n598
*879 mult_49_n597
*880 mult_49_n596
*881 mult_49_n595
*882 mult_49_n594
*883 mult_49_n593
*884 mult_49_n592
*885 mult_49_n591
*886 mult_49_n590
*887 mult_49_n589
*888 mult_49_n588
*889 mult_49_n587
*890 mult_49_n586
*891 mult_49_n585
*892 mult_49_n584
*893 mult_49_n583
*894 mult_49_n582
*895 mult_49_n581
*896 mult_49_n580
*897 mult_49_n579
*898 mult_49_n578
*899 mult_49_n577
*900 mult_49_n576
*901 mult_49_n575
*902 mult_49_n574
*903 mult_49_n573
*904 mult_49_n572
*905 mult_49_n571
*906 mult_49_n570
*907 mult_49_n569
*908 mult_49_n568
*909 mult_49_n567
*910 mult_49_n566
*911 mult_49_n565
*912 mult_49_n564
*913 mult_49_n563
*914 mult_49_n562
*915 mult_49_n561
*916 mult_49_n560
*917 mult_49_n559
*918 mult_49_n558
*919 mult_49_n557
*920 mult_49_n556
*921 mult_49_n352
*922 mult_49_n351
*923 mult_49_n350
*924 mult_49_n349
*925 mult_49_n348
*926 mult_49_n347
*927 mult_49_n346
*928 mult_49_n345
*929 mult_49_n344
*930 mult_49_n343
*931 mult_49_n342
*932 mult_49_n341
*933 mult_49_n338
*934 mult_49_n337
*935 mult_49_n336
*936 mult_49_n335
*937 mult_49_n334
*938 mult_49_n333
*939 mult_49_n332
*940 mult_49_n331
*941 mult_49_n330
*942 mult_49_n329
*943 mult_49_n328
*944 mult_49_n327
*945 mult_49_n326
*946 mult_49_n325
*947 mult_49_n324
*948 mult_49_n323
*949 mult_49_n322
*950 mult_49_n321
*951 mult_49_n320
*952 mult_49_n319
*953 mult_49_n318
*954 mult_49_n317
*955 mult_49_n316
*956 mult_49_n315
*957 mult_49_n314
*958 mult_49_n312
*959 mult_49_n311
*960 mult_49_n309
*961 mult_49_n308
*962 mult_49_n307
*963 mult_49_n306
*964 mult_49_n305
*965 mult_49_n304
*966 mult_49_n303
*967 mult_49_n302
*968 mult_49_n301
*969 mult_49_n300
*970 mult_49_n299
*971 mult_49_n298
*972 mult_49_n297
*973 mult_49_n296
*974 mult_49_n294
*975 mult_49_n293
*976 mult_49_n292
*977 mult_49_n291
*978 mult_49_n290
*979 mult_49_n289
*980 mult_49_n288
*981 mult_49_n287
*982 mult_49_n286
*983 mult_49_n285
*984 mult_49_n284
*985 mult_49_n283
*986 mult_49_n282
*987 mult_49_n281
*988 mult_49_n279
*989 mult_49_n278
*990 mult_49_n277
*991 mult_49_n276
*992 mult_49_n275
*993 mult_49_n273
*994 mult_49_n272
*995 mult_49_n271
*996 mult_49_n270
*997 mult_49_n269
*998 mult_49_n268
*999 mult_49_n267
*1000 mult_49_n266
*1001 mult_49_n264
*1002 mult_49_n263
*1003 mult_49_n262
*1004 mult_49_n261
*1005 mult_49_n260
*1006 mult_49_n259
*1007 mult_49_n258
*1008 mult_49_n257
*1009 mult_49_n256
*1010 mult_49_n255
*1011 mult_49_n254
*1012 mult_49_n253
*1013 mult_49_n252
*1014 mult_49_n251
*1015 mult_49_n247
*1016 mult_49_n246
*1017 mult_49_n245
*1018 mult_49_n244
*1019 mult_49_n243
*1020 mult_49_n223
*1021 mult_49_n222
*1022 mult_49_n221
*1023 mult_49_n220
*1024 mult_49_n219
*1025 mult_49_n218
*1026 mult_49_n217
*1027 mult_49_n216
*1028 mult_49_n215
*1029 mult_49_n214
*1030 mult_49_n213
*1031 mult_49_n212
*1032 mult_49_n211
*1033 mult_49_n210
*1034 mult_49_n209
*1035 mult_49_n208
*1036 mult_49_n207
*1037 mult_49_n206
*1038 mult_49_n205
*1039 mult_49_n204
*1040 mult_49_n203
*1041 mult_49_n202
*1042 mult_49_n201
*1043 mult_49_n200
*1044 mult_49_n199
*1045 mult_49_n198
*1046 mult_49_n197
*1047 mult_49_n196
*1048 mult_49_n195
*1049 mult_49_n194
*1050 mult_49_n193
*1051 mult_49_n192
*1052 mult_49_n191
*1053 mult_49_n190
*1054 mult_49_n189
*1055 mult_49_n188
*1056 mult_49_n187
*1057 mult_49_n186
*1058 mult_49_n185
*1059 mult_49_n184
*1060 mult_49_n183
*1061 mult_49_n182
*1062 mult_49_n181
*1063 mult_49_n180
*1064 mult_49_n179
*1065 mult_49_n178
*1066 mult_49_n177
*1067 mult_49_n176
*1068 mult_49_n175
*1069 mult_49_n174
*1070 mult_49_n173
*1071 mult_49_n172
*1072 mult_49_n171
*1073 mult_49_n170
*1074 mult_49_n169
*1075 mult_49_n168
*1076 mult_49_n167
*1077 mult_49_n166
*1078 mult_49_n165
*1079 mult_49_n164
*1080 mult_49_n163
*1081 mult_49_n162
*1082 mult_49_n161
*1083 mult_49_n160
*1084 mult_49_n159
*1085 mult_49_n158
*1086 mult_49_n157
*1087 mult_49_n156
*1088 mult_49_n155
*1089 mult_49_n154
*1090 mult_49_n153
*1091 mult_49_n152
*1092 mult_49_n151
*1093 mult_49_n150
*1094 mult_49_n149
*1095 mult_49_n148
*1096 mult_49_n147
*1097 mult_49_n146
*1098 mult_49_n145
*1099 mult_49_n144
*1100 mult_49_n143
*1101 mult_49_n142
*1102 mult_49_n141
*1103 mult_49_n140
*1104 mult_49_n139
*1105 mult_49_n138
*1106 mult_49_n137
*1107 mult_49_n136
*1108 mult_49_n135
*1109 mult_49_n134
*1110 mult_49_n133
*1111 mult_49_n132
*1112 mult_49_n131
*1113 mult_49_n130
*1114 mult_49_n129
*1115 mult_49_n128
*1116 mult_49_n126
*1117 mult_49_n125
*1118 mult_49_n124
*1119 mult_49_n123
*1120 mult_49_n122
*1121 mult_49_n121
*1122 mult_49_n120
*1123 mult_49_n119
*1124 mult_49_n118
*1125 mult_49_n117
*1126 mult_49_n116
*1127 mult_49_n115
*1128 mult_49_n114
*1129 mult_49_n113
*1130 mult_49_n112
*1131 mult_49_n111
*1132 mult_49_n110
*1133 mult_49_n109
*1134 mult_49_n108
*1135 mult_49_n107
*1136 mult_49_n106
*1137 mult_49_n104
*1138 mult_49_n103
*1139 mult_49_n102
*1140 mult_49_n101
*1141 mult_49_n100
*1142 mult_49_n99
*1143 mult_49_n98
*1144 mult_49_n97
*1145 mult_49_n96
*1146 mult_49_n95
*1147 mult_49_n94
*1148 mult_49_n93
*1149 mult_49_n92
*1150 mult_49_n91
*1151 mult_49_n90
*1152 mult_49_n89
*1153 mult_49_n88
*1154 mult_49_n86
*1155 mult_49_n85
*1156 mult_49_n84
*1157 mult_49_n83
*1158 mult_49_n82
*1159 mult_49_n81
*1160 mult_49_n80
*1161 mult_49_n79
*1162 mult_49_n78
*1163 mult_49_n77
*1164 mult_49_n76
*1165 mult_49_n75
*1166 mult_49_n74
*1167 mult_49_n72
*1168 mult_49_n71
*1169 mult_49_n70
*1170 mult_49_n69
*1171 mult_49_n68
*1172 mult_49_n67
*1173 mult_49_n66
*1174 mult_49_n65
*1175 mult_49_n64
*1176 mult_49_n62
*1177 mult_49_n61
*1178 mult_49_n60
*1179 mult_49_n59
*1180 mult_49_n58
*1181 mult_49_n38
*1182 mult_49_n37
*1183 mult_49_n36
*1184 mult_49_n35
*1185 mult_49_n34
*1186 mult_49_n33
*1187 mult_49_n32
*1188 mult_45_n673
*1189 mult_45_n672
*1190 mult_45_n671
*1191 mult_45_n670
*1192 mult_45_n669
*1193 mult_45_n668
*1194 mult_45_n667
*1195 mult_45_n666
*1196 mult_45_n665
*1197 mult_45_n664
*1198 mult_45_n663
*1199 mult_45_n662
*1200 mult_45_n661
*1201 mult_45_n660
*1202 mult_45_n659
*1203 mult_45_n658
*1204 mult_45_n657
*1205 mult_45_n656
*1206 mult_45_n655
*1207 mult_45_n654
*1208 mult_45_n653
*1209 mult_45_n652
*1210 mult_45_n651
*1211 mult_45_n650
*1212 mult_45_n649
*1213 mult_45_n648
*1214 mult_45_n647
*1215 mult_45_n646
*1216 mult_45_n645
*1217 mult_45_n644
*1218 mult_45_n643
*1219 mult_45_n642
*1220 mult_45_n641
*1221 mult_45_n640
*1222 mult_45_n639
*1223 mult_45_n638
*1224 mult_45_n637
*1225 mult_45_n636
*1226 mult_45_n635
*1227 mult_45_n634
*1228 mult_45_n633
*1229 mult_45_n632
*1230 mult_45_n631
*1231 mult_45_n630
*1232 mult_45_n629
*1233 mult_45_n628
*1234 mult_45_n627
*1235 mult_45_n626
*1236 mult_45_n625
*1237 mult_45_n624
*1238 mult_45_n623
*1239 mult_45_n622
*1240 mult_45_n621
*1241 mult_45_n620
*1242 mult_45_n619
*1243 mult_45_n618
*1244 mult_45_n617
*1245 mult_45_n616
*1246 mult_45_n615
*1247 mult_45_n614
*1248 mult_45_n613
*1249 mult_45_n612
*1250 mult_45_n611
*1251 mult_45_n610
*1252 mult_45_n609
*1253 mult_45_n608
*1254 mult_45_n607
*1255 mult_45_n606
*1256 mult_45_n605
*1257 mult_45_n604
*1258 mult_45_n603
*1259 mult_45_n602
*1260 mult_45_n601
*1261 mult_45_n600
*1262 mult_45_n599
*1263 mult_45_n598
*1264 mult_45_n597
*1265 mult_45_n596
*1266 mult_45_n595
*1267 mult_45_n594
*1268 mult_45_n593
*1269 mult_45_n592
*1270 mult_45_n591
*1271 mult_45_n590
*1272 mult_45_n589
*1273 mult_45_n588
*1274 mult_45_n587
*1275 mult_45_n586
*1276 mult_45_n585
*1277 mult_45_n584
*1278 mult_45_n583
*1279 mult_45_n582
*1280 mult_45_n581
*1281 mult_45_n580
*1282 mult_45_n579
*1283 mult_45_n578
*1284 mult_45_n577
*1285 mult_45_n576
*1286 mult_45_n575
*1287 mult_45_n574
*1288 mult_45_n573
*1289 mult_45_n572
*1290 mult_45_n571
*1291 mult_45_n570
*1292 mult_45_n569
*1293 mult_45_n568
*1294 mult_45_n567
*1295 mult_45_n566
*1296 mult_45_n565
*1297 mult_45_n564
*1298 mult_45_n563
*1299 mult_45_n562
*1300 mult_45_n561
*1301 mult_45_n560
*1302 mult_45_n559
*1303 mult_45_n558
*1304 mult_45_n557
*1305 mult_45_n556
*1306 mult_45_n555
*1307 mult_45_n554
*1308 mult_45_n553
*1309 mult_45_n552
*1310 mult_45_n551
*1311 mult_45_n550
*1312 mult_45_n549
*1313 mult_45_n548
*1314 mult_45_n547
*1315 mult_45_n546
*1316 mult_45_n545
*1317 mult_45_n544
*1318 mult_45_n543
*1319 mult_45_n542
*1320 mult_45_n541
*1321 mult_45_n540
*1322 mult_45_n539
*1323 mult_45_n538
*1324 mult_45_n537
*1325 mult_45_n536
*1326 mult_45_n535
*1327 mult_45_n534
*1328 mult_45_n533
*1329 mult_45_n532
*1330 mult_45_n531
*1331 mult_45_n530
*1332 mult_45_n529
*1333 mult_45_n528
*1334 mult_45_n527
*1335 mult_45_n526
*1336 mult_45_n525
*1337 mult_45_n524
*1338 mult_45_n523
*1339 mult_45_n522
*1340 mult_45_n521
*1341 mult_45_n520
*1342 mult_45_n519
*1343 mult_45_n518
*1344 mult_45_n517
*1345 mult_45_n516
*1346 mult_45_n515
*1347 mult_45_n514
*1348 mult_45_n513
*1349 mult_45_n512
*1350 mult_45_n511
*1351 mult_45_n510
*1352 mult_45_n509
*1353 mult_45_n508
*1354 mult_45_n507
*1355 mult_45_n506
*1356 mult_45_n505
*1357 mult_45_n504
*1358 mult_45_n503
*1359 mult_45_n502
*1360 mult_45_n501
*1361 mult_45_n500
*1362 mult_45_n499
*1363 mult_45_n498
*1364 mult_45_n497
*1365 mult_45_n496
*1366 mult_45_n495
*1367 mult_45_n307
*1368 mult_45_n306
*1369 mult_45_n305
*1370 mult_45_n304
*1371 mult_45_n303
*1372 mult_45_n302
*1373 mult_45_n301
*1374 mult_45_n300
*1375 mult_45_n299
*1376 mult_45_n298
*1377 mult_45_n297
*1378 mult_45_n296
*1379 mult_45_n293
*1380 mult_45_n292
*1381 mult_45_n291
*1382 mult_45_n290
*1383 mult_45_n289
*1384 mult_45_n288
*1385 mult_45_n287
*1386 mult_45_n286
*1387 mult_45_n285
*1388 mult_45_n284
*1389 mult_45_n283
*1390 mult_45_n282
*1391 mult_45_n281
*1392 mult_45_n279
*1393 mult_45_n278
*1394 mult_45_n277
*1395 mult_45_n276
*1396 mult_45_n275
*1397 mult_45_n274
*1398 mult_45_n273
*1399 mult_45_n272
*1400 mult_45_n271
*1401 mult_45_n270
*1402 mult_45_n269
*1403 mult_45_n267
*1404 mult_45_n266
*1405 mult_45_n264
*1406 mult_45_n263
*1407 mult_45_n262
*1408 mult_45_n261
*1409 mult_45_n260
*1410 mult_45_n259
*1411 mult_45_n258
*1412 mult_45_n257
*1413 mult_45_n256
*1414 mult_45_n255
*1415 mult_45_n254
*1416 mult_45_n253
*1417 mult_45_n252
*1418 mult_45_n251
*1419 mult_45_n249
*1420 mult_45_n248
*1421 mult_45_n247
*1422 mult_45_n246
*1423 mult_45_n245
*1424 mult_45_n244
*1425 mult_45_n243
*1426 mult_45_n242
*1427 mult_45_n241
*1428 mult_45_n240
*1429 mult_45_n239
*1430 mult_45_n238
*1431 mult_45_n236
*1432 mult_45_n235
*1433 mult_45_n234
*1434 mult_45_n233
*1435 mult_45_n232
*1436 mult_45_n230
*1437 mult_45_n229
*1438 mult_45_n228
*1439 mult_45_n227
*1440 mult_45_n225
*1441 mult_45_n224
*1442 mult_45_n223
*1443 mult_45_n222
*1444 mult_45_n221
*1445 mult_45_n220
*1446 mult_45_n219
*1447 mult_45_n218
*1448 mult_45_n214
*1449 mult_45_n213
*1450 mult_45_n212
*1451 mult_45_n211
*1452 mult_45_n210
*1453 mult_45_n193
*1454 mult_45_n192
*1455 mult_45_n191
*1456 mult_45_n190
*1457 mult_45_n189
*1458 mult_45_n188
*1459 mult_45_n187
*1460 mult_45_n186
*1461 mult_45_n185
*1462 mult_45_n184
*1463 mult_45_n183
*1464 mult_45_n182
*1465 mult_45_n181
*1466 mult_45_n180
*1467 mult_45_n179
*1468 mult_45_n178
*1469 mult_45_n177
*1470 mult_45_n176
*1471 mult_45_n175
*1472 mult_45_n174
*1473 mult_45_n173
*1474 mult_45_n172
*1475 mult_45_n171
*1476 mult_45_n170
*1477 mult_45_n169
*1478 mult_45_n168
*1479 mult_45_n167
*1480 mult_45_n166
*1481 mult_45_n165
*1482 mult_45_n164
*1483 mult_45_n163
*1484 mult_45_n162
*1485 mult_45_n161
*1486 mult_45_n160
*1487 mult_45_n159
*1488 mult_45_n158
*1489 mult_45_n157
*1490 mult_45_n156
*1491 mult_45_n155
*1492 mult_45_n154
*1493 mult_45_n153
*1494 mult_45_n152
*1495 mult_45_n151
*1496 mult_45_n150
*1497 mult_45_n149
*1498 mult_45_n148
*1499 mult_45_n147
*1500 mult_45_n146
*1501 mult_45_n145
*1502 mult_45_n144
*1503 mult_45_n143
*1504 mult_45_n142
*1505 mult_45_n141
*1506 mult_45_n140
*1507 mult_45_n139
*1508 mult_45_n138
*1509 mult_45_n137
*1510 mult_45_n136
*1511 mult_45_n135
*1512 mult_45_n134
*1513 mult_45_n133
*1514 mult_45_n132
*1515 mult_45_n131
*1516 mult_45_n130
*1517 mult_45_n129
*1518 mult_45_n128
*1519 mult_45_n127
*1520 mult_45_n126
*1521 mult_45_n125
*1522 mult_45_n124
*1523 mult_45_n123
*1524 mult_45_n122
*1525 mult_45_n121
*1526 mult_45_n120
*1527 mult_45_n119
*1528 mult_45_n118
*1529 mult_45_n117
*1530 mult_45_n116
*1531 mult_45_n115
*1532 mult_45_n114
*1533 mult_45_n113
*1534 mult_45_n112
*1535 mult_45_n111
*1536 mult_45_n110
*1537 mult_45_n109
*1538 mult_45_n108
*1539 mult_45_n107
*1540 mult_45_n106
*1541 mult_45_n105
*1542 mult_45_n104
*1543 mult_45_n103
*1544 mult_45_n102
*1545 mult_45_n101
*1546 mult_45_n100
*1547 mult_45_n99
*1548 mult_45_n98
*1549 mult_45_n96
*1550 mult_45_n95
*1551 mult_45_n94
*1552 mult_45_n93
*1553 mult_45_n92
*1554 mult_45_n91
*1555 mult_45_n90
*1556 mult_45_n89
*1557 mult_45_n88
*1558 mult_45_n87
*1559 mult_45_n86
*1560 mult_45_n85
*1561 mult_45_n84
*1562 mult_45_n83
*1563 mult_45_n82
*1564 mult_45_n81
*1565 mult_45_n80
*1566 mult_45_n79
*1567 mult_45_n78
*1568 mult_45_n77
*1569 mult_45_n76
*1570 mult_45_n74
*1571 mult_45_n73
*1572 mult_45_n72
*1573 mult_45_n71
*1574 mult_45_n70
*1575 mult_45_n69
*1576 mult_45_n68
*1577 mult_45_n67
*1578 mult_45_n66
*1579 mult_45_n65
*1580 mult_45_n64
*1581 mult_45_n63
*1582 mult_45_n62
*1583 mult_45_n61
*1584 mult_45_n60
*1585 mult_45_n59
*1586 mult_45_n58
*1587 mult_45_n36
*1588 mult_45_n35
*1589 mult_45_n34
*1590 mult_45_n33
*1591 mult_45_n32
*1592 mult_43_n701
*1593 mult_43_n700
*1594 mult_43_n699
*1595 mult_43_n698
*1596 mult_43_n697
*1597 mult_43_n696
*1598 mult_43_n695
*1599 mult_43_n694
*1600 mult_43_n693
*1601 mult_43_n692
*1602 mult_43_n691
*1603 mult_43_n690
*1604 mult_43_n689
*1605 mult_43_n688
*1606 mult_43_n687
*1607 mult_43_n686
*1608 mult_43_n685
*1609 mult_43_n684
*1610 mult_43_n683
*1611 mult_43_n682
*1612 mult_43_n681
*1613 mult_43_n680
*1614 mult_43_n679
*1615 mult_43_n678
*1616 mult_43_n677
*1617 mult_43_n676
*1618 mult_43_n675
*1619 mult_43_n674
*1620 mult_43_n673
*1621 mult_43_n672
*1622 mult_43_n671
*1623 mult_43_n670
*1624 mult_43_n669
*1625 mult_43_n668
*1626 mult_43_n667
*1627 mult_43_n666
*1628 mult_43_n665
*1629 mult_43_n664
*1630 mult_43_n663
*1631 mult_43_n662
*1632 mult_43_n661
*1633 mult_43_n660
*1634 mult_43_n659
*1635 mult_43_n658
*1636 mult_43_n657
*1637 mult_43_n656
*1638 mult_43_n655
*1639 mult_43_n654
*1640 mult_43_n653
*1641 mult_43_n652
*1642 mult_43_n651
*1643 mult_43_n650
*1644 mult_43_n649
*1645 mult_43_n648
*1646 mult_43_n647
*1647 mult_43_n646
*1648 mult_43_n645
*1649 mult_43_n644
*1650 mult_43_n643
*1651 mult_43_n642
*1652 mult_43_n641
*1653 mult_43_n640
*1654 mult_43_n639
*1655 mult_43_n638
*1656 mult_43_n637
*1657 mult_43_n636
*1658 mult_43_n635
*1659 mult_43_n634
*1660 mult_43_n633
*1661 mult_43_n632
*1662 mult_43_n631
*1663 mult_43_n630
*1664 mult_43_n629
*1665 mult_43_n628
*1666 mult_43_n627
*1667 mult_43_n626
*1668 mult_43_n625
*1669 mult_43_n624
*1670 mult_43_n623
*1671 mult_43_n622
*1672 mult_43_n621
*1673 mult_43_n620
*1674 mult_43_n619
*1675 mult_43_n618
*1676 mult_43_n617
*1677 mult_43_n616
*1678 mult_43_n615
*1679 mult_43_n614
*1680 mult_43_n613
*1681 mult_43_n612
*1682 mult_43_n611
*1683 mult_43_n610
*1684 mult_43_n609
*1685 mult_43_n608
*1686 mult_43_n607
*1687 mult_43_n606
*1688 mult_43_n605
*1689 mult_43_n604
*1690 mult_43_n603
*1691 mult_43_n602
*1692 mult_43_n601
*1693 mult_43_n600
*1694 mult_43_n599
*1695 mult_43_n598
*1696 mult_43_n597
*1697 mult_43_n596
*1698 mult_43_n595
*1699 mult_43_n594
*1700 mult_43_n593
*1701 mult_43_n592
*1702 mult_43_n591